[General]

#
# This file is an .ini file for running simulations for QoE and QoE-Sli-1 scenarios with atm: 
#       * 6 slices + QoS flows
#       * QoS flows
#

sim-time-limit=400s
num-rngs = 1
seed-0-mt = 5
output-scalar-file-append = false
record-eventlog = false
cmdenv-express-mode = false
cmdenv-output-file = log.txt
cmdenv-autoflush = true
**.cmdenv-log-level = FATAL

*.visualizer.*.interfaceTableVisualizer.displayInterfaceTables = true

**.tcp.typename = "Tcp"
**.udp.typename = "Udp"

**.packetCapacity = 500

# tcp general settings
**.tcp.advertisedWindow = 65535                      # in bytes, corresponds with the maximal receiver buffer capacity (Note: normally, NIC queues should be at least this size)
**.tcp.delayedAcksEnabled = false                    # delayed ACK algorithm (RFC 1122) enabled/disabled
**.tcp.nagleEnabled = true                           # Nagle's algorithm (RFC 896) enabled/disabled
**.tcp.limitedTransmitEnabled = false                # Limited Transmit algorithm (RFC 3042) enabled/disabled (can be used for TCPReno/TCPTahoe/TCPNewReno/TCPNoCongestionControl)
**.tcp.increasedIWEnabled = false                    # Increased Initial Window (RFC 3390) enabled/disabled
**.tcp.sackSupport = false                           # Selective Acknowledgment (RFC 2018, 2883, 3517) support (header option) (SACK will be enabled for a connection if both endpoints support it)
**.tcp.windowScalingSupport = false                  # Window Scale (RFC 1323) support (header option) (WS will be enabled for a connection if both endpoints support it)
**.tcp.timestampSupport = false                      # Timestamps (RFC 1323) support (header option) (TS will be enabled for a connection if both endpoints support it)
**.tcp.mss = 1452                                    # Maximum Segment Size (RFC 793) (header option)
**.tcp.tcpAlgorithmClass = "TcpReno"                 # TCPReno/TCPTahoe/TCPNewReno/TCPNoCongestionControl/DumbTCP

**.tcp.*.*.vector-recording = true
**.tcp.*.rtt.result-recording-modes = +vector
**.tcp.*.cwnd.result-recording-modes = +vector
**.tcp.*.*.result-recording-modes = -vector
**.host*.app*.*.vector-recording = true
**.ppp.*xPk*.vector-recording = true
#**.ppp.queue.*.vector-recording = true
#**.ppp.queue.*.*.vector-recording = true
#*.router*.ppp[0].ppp.vector-recording = true
**.vector-recording = false

[Config liteCbaselineTestExampleTopoVisualizer]
description = "Visualize base topology"
network = baselineTestQoS

sim-time-limit=400s

output-vector-file = "${resultdir}/${configname}/${configname}-${runnumber}.vec"
output-scalar-file = "${resultdir}/${configname}/${configname}-${runnumber}.sca"

*.visualizer.*.interfaceTableVisualizer.displayInterfaceTables = false

**.crcMode = "computed"

*.nVID = ${numCli=1,2,10,20,30,40,50,60,70,80} # Number of video clients
*.nLVD = ${numCli} # Number of file download clients
*.nFDO = ${numCli} # Number of file download clients
*.nSSH = ${numCli} # Number of SSH clients
*.nVIP = ${numCli} # Number of VoIP clients
*.ncVIP = ${numCli} # Number of critical VoIP clients

**.numApps = 0

[Config liteCbaselineTestTokenQoS_base]
description = "All five applications - base configuration without any resource allocation"
network = baselineTestQoS
sim-time-limit=400s

output-vector-file = "${resultdir}/${configname}/${configname}-${runnumber}.vec"
output-scalar-file = "${resultdir}/${configname}/${configname}-${runnumber}.sca"

**.crcMode = "computed"
*.host*.numApps = 1

#*.configurator.config = liteCbaselineTestTokenQoS_basexmldoc("configs/baseQoS/routerConfigBaseHtbTest.xml")

# File download client
*.hostFDO[*].hasTcp = true
*.hostFDO[*].app[0].typename = "TcpFileDownloadApp"
*.hostFDO[*].app[0].localAddress = ""
*.hostFDO[*].app[0].localPort = -1 # port number to listen on
*.hostFDO[*].app[0].connectAddress = "serverFDO" # server address (may be symbolic)
*.hostFDO[*].app[0].connectPort = 1042 + int(parentIndex()) # port number to connect to
#*.hostFDO[*].app[0].startTime = uniform(0.01s,1s) # time first session begins
#*.hostFDO[*].app[0].stopTime = -1s # time of finishing sending, negative values mean forever
*.hostFDO[*].app[0].numRequestsPerSession = 1 # number of requests sent per session
*.hostFDO[*].app[0].requestLength = 800B # length of a request
*.hostFDO[*].app[0].replyLength = 10000KiB # length of a reply
*.hostFDO[*].app[0].thinkTime = 0.01s # time gap between requests
*.hostFDO[*].app[0].idleInterval = 1s # time gap between sessions
*.hostFDO[*].app[0].reconnectInterval = 1s # if connection breaks, waits this much before trying to reconnect
*.hostFDO[*].app[0].stopOperationExtraTime = -1s # extra time after lifecycle stop operation finished
*.hostFDO[*].app[0].stopOperationTimeout = 2s # timeout value for lifecycle stop operation

# File download server
*.serverFDO.hasTcp = true
*.serverFDO.numApps = parent.nFDO
*.serverFDO.app[*].typename = "TcpGenericServerApp"
*.serverFDO.app[*].localAddress = "" # local address; may be left empty ("")
*.serverFDO.app[*].localPort = 1042 + int(index) # localPort number to listen on
*.serverFDO.app[*].replyDelay = 0s #
*.serverFDO.app[*].stopOperationExtraTime = -1s # extra time after lifecycle stop operation finished
*.serverFDO.app[*].stopOperationTimeout  = 2s # timeout value for lifecycle stop operation

# Video client
**.hostVID[*].hasTcp = true
**.hostVID[*].app[0].typename = "improved5gns2.apps.TCPVideoStreamCliAppV2lite"
**.hostVID[*].app[0].localAddress = "" # may be left empty ("")
**.hostVID[*].app[0].localPort = -1 # port number to listen on
**.hostVID[*].app[0].connectAddress = "serverVID" # server address (may be symbolic)
**.hostVID[*].app[0].connectPort = 1042 + int(parentIndex()) # port number to connect to
**.hostVID[*].app[0].dataTransferMode = "object"
#**.hostVID[*].app[0].startTime = uniform(0.01s,1s) # time first session begins
#**.hostVID[*].app[0].stopTime = -1s # time of finish sending, 0 means infinity
**.hostVID[*].app[0].idleInterval = 1s
**.hostVID[*].app[0].requestLength = 200B # length of a request
**.hostVID[*].app[0].reconnectInterval = 1s # if connection breaks, waits this much before trying to reconnect
**.hostVID[*].app[0].numRequestsPerSession = 1 # number of requests sent per session
**.hostVID[*].app[0].thinkTime = 1s # time gap between requests
**.hostVID[*].app[0].video_resolution = "360 480 720 1080" # how many kbits are required for 1 second of video for each representation (quality levels)
**.hostVID[*].app[0].manifest_size = 100000
**.hostVID[*].app[0].video_buffer_max_length = 40s # buffer max length in seconds
**.hostVID[*].app[0].video_duration = int(uniform(240s,320s)) # video length in seconds
**.hostVID[*].app[0].segment_length = 5s # video segment length in seconds
**.hostVID[*].app[0].useFlexibleBitrate = "flexible"

# Video server
*.serverVID.hasTcp = true
*.serverVID.numApps = parent.nVID
*.serverVID.app[*].typename = "TcpGenericServerApp"
*.serverVID.app[*].localAddress = "" # local address; may be left empty ("")
*.serverVID.app[*].localPort = 1042 + int(index)# localPort number to listen on
*.serverVID.app[*].replyDelay = 0s #
*.serverVID.app[*].stopOperationExtraTime = -1s # extra time after lifecycle stop operation finished
*.serverVID.app[*].stopOperationTimeout  = 2s # timeout value for lifecycle stop operation

# Live Video client
**.hostLVD[*].hasTcp = true
**.hostLVD[*].app[0].typename = "TCPLiveVideoStreamCliAppLite"
**.hostLVD[*].app[0].localAddress = "" # may be left empty ("")
**.hostLVD[*].app[0].localPort = -1 # port number to listen on
**.hostLVD[*].app[0].connectAddress = "serverLVD" # server address (may be symbolic)
**.hostLVD[*].app[0].connectPort = 1043 # port number to connect to
**.hostLVD[*].app[0].dataTransferMode = "object"
#**.hostLVD[*].app[0].startTime = uniform(0.01s,1s) # time first session begins
#**.hostLVD[*].app[0].stopTime = -1s # time of finish sending, 0 means infinity
**.hostLVD[*].app[0].idleInterval = 1s
**.hostLVD[*].app[0].requestLength = 200B # length of a request
**.hostLVD[*].app[0].reconnectInterval = 1s # if connection breaks, waits this much before trying to reconnect
**.hostLVD[*].app[0].numRequestsPerSession = 1 # number of requests sent per session
**.hostLVD[*].app[0].thinkTime = 1s # time gap between requests
**.hostLVD[*].app[0].video_resolution = "240 360 480 720 1080" # how many kbits are required for 1 second of video for each representation (quality levels)
**.hostLVD[*].app[0].manifest_size = 100000
**.hostLVD[*].app[0].video_buffer_max_length = 6s # buffer max length in seconds
**.hostLVD[*].app[0].video_duration = int(uniform(40s,70s)) # video length in seconds
**.hostLVD[*].app[0].segment_length = 1s # video segment length in seconds
**.hostLVD[*].app[0].useFlexibleBitrate = "flexible"
**.hostLVD[*].app[0].video_type = "live"
**.hostLVD[*].app[0].delay_threshold = 4
**.hostLVD[*].app[0].speedup_rate = 1.05

# Live Video server
*.serverLVD.hasTcp = true
*.serverLVD.numApps = 1
*.serverLVD.app[0].typename = "TcpGenericServerApp"
*.serverLVD.app[0].localAddress = "" # local address; may be left empty ("")
*.serverLVD.app[0].localPort = 1043 # localPort number to listen on
*.serverLVD.app[0].replyDelay = 0s #
*.serverLVD.app[0].stopOperationExtraTime = -1s # extra time after lifecycle stop operation finished
*.serverLVD.app[0].stopOperationTimeout  = 2s # timeout value for lifecycle stop operation

# Remote Shell Client
**.hostSSH[*].hasTcp = true
**.hostSSH[*].app[0].typename = "TcpSimpleSshAppV2lite"
**.hostSSH[*].app[0].localAddress = "" # local address or empty ("")
**.hostSSH[*].app[0].localPort = -1 # local port number
**.hostSSH[*].app[0].connectAddress = "serverSSH" # server address (may be symbolic)
**.hostSSH[*].app[0].connectPort = 22  # port number to connect to
#**.hostSSH[*].app[0].startTime = uniform(0.01s,1s) # time first session begins
#**.hostSSH[*].app[0].stopTime = -1s # time of finishing sending, negative values mean forever
**.hostSSH[*].app[0].numCommands = 1 # user types this many commands in a session
**.hostSSH[*].app[0].commandLength = 10B # commands are this many characters (plus Enter)
**.hostSSH[*].app[0].keyPressDelay = 0.05s # delay between keypresses
**.hostSSH[*].app[0].commandOutputLength = 500B # commands produce this much output
**.hostSSH[*].app[0].thinkTime = 1s # user waits this much before starting to type new command
**.hostSSH[*].app[0].idleInterval = 1s # time gap between sessions
**.hostSSH[*].app[0].reconnectInterval = 1s # if connection breaks, user waits this much before trying to reconnect
**.hostSSH[*].app[0].stopOperationExtraTime = -1s # extra time after lifecycle stop operation finished
**.hostSSH[*].app[0].stopOperationTimeout = 2s # timeout value for lifecycle stop operation

# SSH server
*.serverSSH.hasTcp = true
*.serverSSH.numApps = 1
*.serverSSH.app[*].typename = "TcpGenericServerApp"
*.serverSSH.app[*].localAddress = "" # local address; may be left empty ("")
*.serverSSH.app[*].localPort = 22 # localPort number to listen on
*.serverSSH.app[*].replyDelay = 0s #
*.serverSSH.app[*].stopOperationExtraTime = -1s # extra time after lifecycle stop operation finished
*.serverSSH.app[*].stopOperationTimeout  = 2s # timeout value for lifecycle stop operation

# VoIP receiver
**.hostVIP[*].hasUdp = true
**.hostVIP[*].app[0].typename = "SimpleVoipReceiver"
**.hostVIP[*].app[0].localPort = 2000
**.hostVIP[*].app[0].emodelIe = 5 # Equipment impairment factor
**.hostVIP[*].app[0].emodelBpl = 10 # Packet-loss robustness factor
**.hostVIP[*].app[0].emodelA = 5 # Advantage factor
**.hostVIP[*].app[0].emodelRo = 93.2 # Basic signal-to-noise ratio
**.hostVIP[*].app[0].playoutDelay = 20ms # initial delay for beginning playout after receiving the first packet
**.hostVIP[*].app[0].adaptivePlayoutDelay = false # if true, adjust playoutDelay after each talkspurt
**.hostVIP[*].app[0].bufferSpace = 20 # buffer size in packets
**.hostVIP[*].app[0].mosSpareTime = 1s # spare time before calculating MOS (after calculated playout time of last packet)

# VoIP sender
**.serverVIP.hasUdp = true
**.serverVIP.numApps = parent.nVIP
**.serverVIP.app[*].typename = "SimpleVoipSender"
**.serverVIP.app[*].localPort = -1
**.serverVIP.app[*].destAddress = "hostVIP[" + string(index) + "]"
**.serverVIP.app[*].destPort = 2000
**.serverVIP.app[*].talkPacketSize = 40B # size of talk packets in bytes
**.serverVIP.app[*].talkspurtDuration = weibull(1.423s, 0.824s)
**.serverVIP.app[*].silenceDuration = weibull(0.899s, 1.089s)
**.serverVIP.app[*].packetizationInterval = 20ms # interval between sending voice packets
#**.serverVIP.app[*].startTime = uniform(0.01s,1s) # time of start sending
#**.serverVIP.app[*].stopTime = -1s # time of end of sending, -1 means forever

# Critical VoIP receiver
**.hostcVIP[*].hasUdp = true
**.hostcVIP[*].app[0].typename = "improved5gns2.apps.SimpleVoipReceiverCustom"
**.hostcVIP[*].app[0].localPort = 2000
**.hostcVIP[*].app[0].emodelIe = 5 # Equipment impairment factor
**.hostcVIP[*].app[0].emodelBpl = 10 # Packet-loss robustness factor
**.hostcVIP[*].app[0].emodelA = 5 # Advantage factor
**.hostcVIP[*].app[0].emodelRo = 93.2 # Basic signal-to-noise ratio
**.hostcVIP[*].app[0].playoutDelay = 20ms # initial delay for beginning playout after receiving the first packet
**.hostcVIP[*].app[0].adaptivePlayoutDelay = false # if true, adjust playoutDelay after each talkspurt
**.hostcVIP[*].app[0].bufferSpace = 20 # buffer size in packets
**.hostcVIP[*].app[0].mosSpareTime = 1s # spare time before calculating MOS (after calculated playout time of last packet)

# Critical VoIP sender
**.servercVIP.hasUdp = true
**.servercVIP.numApps = parent.ncVIP
**.servercVIP.app[*].typename = "improved5gns2.apps.SimpleVoipSenderCustom"
**.servercVIP.app[*].localPort = -1
**.servercVIP.app[*].destPort = 2000
**.servercVIP.app[*].destAddress = "hostcVIP[" + string(index) + "]"
**.servercVIP.app[*].talkPacketSize = 40B # size of talk packets in bytes
**.servercVIP.app[*].talkspurtDuration = weibull(1.423s, 0.824s)
**.servercVIP.app[*].silenceDuration = weibull(0.899s, 1.089s)
**.servercVIP.app[*].packetizationInterval = 2ms # interval between sending voice packets, changed from 20ms to 2ms for Critical VIP
#**.servercVIP.app[*].startTime = uniform(0.01s,1s) # time of start sending
#**.servercVIP.app[*].stopTime = -1s # time of end of sending, -1 means forever

[Config CNSM_Vidhalf_equal]
description = "Configuration for CNSM_Vidhalf_equal. All five applications. QoS employed. Guarantee Multiplier: 1; Ceil multiplier: 2"

extends = liteCbaselineTestTokenQoS_base

*.configurator.config = xmldoc("configs/routing/CNSM_Vidhalf_equalRouting.xml")

include ./configs/startStop/CNSM_Vidhalf_equalStartStop.ini

*.nVID = 50 # Number of video clients
*.nLVD = 28 # Number of live video client
*.nFDO = 5 # Number of file download clients
*.nSSH = 10 # Number of SSH clients
*.nVIP = 40 # Number of VoIP clients

*.ncVIP = 0 # Number of critical VoIP clients

*.router*.ppp[0].queue.typename = "HtbQueue"
*.router*.ppp[0].queue.numQueues = 133
*.router*.ppp[0].queue.queue[*].typename = "DropTailQueue"
*.router*.ppp[0].queue.packetCapacity = -1
*.router*.ppp[0].queue.htbHysterisis = false
*.router*.ppp[0].queue.scheduler.adjustHTBTreeValuesForCorectness = false
*.router*.ppp[0].queue.scheduler.checkHTBTreeValuesForCorectness = false
*.router*.ppp[0].queue.htbTreeConfig = readJSON("configs/htbTree/CNSM_Vidhalf_equal.json")
*.router*.ppp[0].queue.classifier.defaultGateIndex = 0
*.router0.ppp[0].queue.classifier.packetFilters = [expr(ipv4.srcAddress.str() =~ "10.0.0.0"),expr(ipv4.srcAddress.str() =~ "10.0.0.4"),expr(ipv4.srcAddress.str() =~ "10.0.0.8"),expr(ipv4.srcAddress.str() =~ "10.0.0.12"),expr(ipv4.srcAddress.str() =~ "10.0.0.16"),expr(ipv4.srcAddress.str() =~ "10.0.0.20"),expr(ipv4.srcAddress.str() =~ "10.0.0.24"),expr(ipv4.srcAddress.str() =~ "10.0.0.28"),expr(ipv4.srcAddress.str() =~ "10.0.0.32"),expr(ipv4.srcAddress.str() =~ "10.0.0.36"),expr(ipv4.srcAddress.str() =~ "10.1.0.0"),expr(ipv4.srcAddress.str() =~ "10.1.0.4"),expr(ipv4.srcAddress.str() =~ "10.1.0.8"),expr(ipv4.srcAddress.str() =~ "10.1.0.12"),expr(ipv4.srcAddress.str() =~ "10.1.0.16"),expr(ipv4.srcAddress.str() =~ "10.1.0.20"),expr(ipv4.srcAddress.str() =~ "10.1.0.24"),expr(ipv4.srcAddress.str() =~ "10.1.0.28"),expr(ipv4.srcAddress.str() =~ "10.1.0.32"),expr(ipv4.srcAddress.str() =~ "10.1.0.36"),expr(ipv4.srcAddress.str() =~ "10.1.0.40"),expr(ipv4.srcAddress.str() =~ "10.1.0.44"),expr(ipv4.srcAddress.str() =~ "10.1.0.48"),expr(ipv4.srcAddress.str() =~ "10.1.0.52"),expr(ipv4.srcAddress.str() =~ "10.1.0.56"),expr(ipv4.srcAddress.str() =~ "10.1.0.60"),expr(ipv4.srcAddress.str() =~ "10.1.0.64"),expr(ipv4.srcAddress.str() =~ "10.1.0.68"),expr(ipv4.srcAddress.str() =~ "10.1.0.72"),expr(ipv4.srcAddress.str() =~ "10.1.0.76"),expr(ipv4.srcAddress.str() =~ "10.1.0.80"),expr(ipv4.srcAddress.str() =~ "10.1.0.84"),expr(ipv4.srcAddress.str() =~ "10.1.0.88"),expr(ipv4.srcAddress.str() =~ "10.1.0.92"),expr(ipv4.srcAddress.str() =~ "10.1.0.96"),expr(ipv4.srcAddress.str() =~ "10.1.0.100"),expr(ipv4.srcAddress.str() =~ "10.1.0.104"),expr(ipv4.srcAddress.str() =~ "10.1.0.108"),expr(ipv4.srcAddress.str() =~ "10.1.0.112"),expr(ipv4.srcAddress.str() =~ "10.1.0.116"),expr(ipv4.srcAddress.str() =~ "10.1.0.120"),expr(ipv4.srcAddress.str() =~ "10.1.0.124"),expr(ipv4.srcAddress.str() =~ "10.1.0.128"),expr(ipv4.srcAddress.str() =~ "10.1.0.132"),expr(ipv4.srcAddress.str() =~ "10.1.0.136"),expr(ipv4.srcAddress.str() =~ "10.1.0.140"),expr(ipv4.srcAddress.str() =~ "10.1.0.144"),expr(ipv4.srcAddress.str() =~ "10.1.0.148"),expr(ipv4.srcAddress.str() =~ "10.1.0.152"),expr(ipv4.srcAddress.str() =~ "10.1.0.156"),expr(ipv4.srcAddress.str() =~ "10.2.0.0"),expr(ipv4.srcAddress.str() =~ "10.2.0.4"),expr(ipv4.srcAddress.str() =~ "10.2.0.8"),expr(ipv4.srcAddress.str() =~ "10.2.0.12"),expr(ipv4.srcAddress.str() =~ "10.2.0.16"),expr(ipv4.srcAddress.str() =~ "10.2.0.20"),expr(ipv4.srcAddress.str() =~ "10.2.0.24"),expr(ipv4.srcAddress.str() =~ "10.2.0.28"),expr(ipv4.srcAddress.str() =~ "10.2.0.32"),expr(ipv4.srcAddress.str() =~ "10.2.0.36"),expr(ipv4.srcAddress.str() =~ "10.2.0.40"),expr(ipv4.srcAddress.str() =~ "10.2.0.44"),expr(ipv4.srcAddress.str() =~ "10.2.0.48"),expr(ipv4.srcAddress.str() =~ "10.2.0.52"),expr(ipv4.srcAddress.str() =~ "10.2.0.56"),expr(ipv4.srcAddress.str() =~ "10.2.0.60"),expr(ipv4.srcAddress.str() =~ "10.2.0.64"),expr(ipv4.srcAddress.str() =~ "10.2.0.68"),expr(ipv4.srcAddress.str() =~ "10.2.0.72"),expr(ipv4.srcAddress.str() =~ "10.2.0.76"),expr(ipv4.srcAddress.str() =~ "10.2.0.80"),expr(ipv4.srcAddress.str() =~ "10.2.0.84"),expr(ipv4.srcAddress.str() =~ "10.2.0.88"),expr(ipv4.srcAddress.str() =~ "10.2.0.92"),expr(ipv4.srcAddress.str() =~ "10.2.0.96"),expr(ipv4.srcAddress.str() =~ "10.2.0.100"),expr(ipv4.srcAddress.str() =~ "10.2.0.104"),expr(ipv4.srcAddress.str() =~ "10.2.0.108"),expr(ipv4.srcAddress.str() =~ "10.2.0.112"),expr(ipv4.srcAddress.str() =~ "10.2.0.116"),expr(ipv4.srcAddress.str() =~ "10.2.0.120"),expr(ipv4.srcAddress.str() =~ "10.2.0.124"),expr(ipv4.srcAddress.str() =~ "10.2.0.128"),expr(ipv4.srcAddress.str() =~ "10.2.0.132"),expr(ipv4.srcAddress.str() =~ "10.2.0.136"),expr(ipv4.srcAddress.str() =~ "10.2.0.140"),expr(ipv4.srcAddress.str() =~ "10.2.0.144"),expr(ipv4.srcAddress.str() =~ "10.2.0.148"),expr(ipv4.srcAddress.str() =~ "10.2.0.152"),expr(ipv4.srcAddress.str() =~ "10.2.0.156"),expr(ipv4.srcAddress.str() =~ "10.2.0.160"),expr(ipv4.srcAddress.str() =~ "10.2.0.164"),expr(ipv4.srcAddress.str() =~ "10.2.0.168"),expr(ipv4.srcAddress.str() =~ "10.2.0.172"),expr(ipv4.srcAddress.str() =~ "10.2.0.176"),expr(ipv4.srcAddress.str() =~ "10.2.0.180"),expr(ipv4.srcAddress.str() =~ "10.2.0.184"),expr(ipv4.srcAddress.str() =~ "10.2.0.188"),expr(ipv4.srcAddress.str() =~ "10.2.0.192"),expr(ipv4.srcAddress.str() =~ "10.2.0.196"),expr(ipv4.srcAddress.str() =~ "10.3.0.0"),expr(ipv4.srcAddress.str() =~ "10.3.0.4"),expr(ipv4.srcAddress.str() =~ "10.3.0.8"),expr(ipv4.srcAddress.str() =~ "10.3.0.12"),expr(ipv4.srcAddress.str() =~ "10.3.0.16"),expr(ipv4.srcAddress.str() =~ "10.3.0.20"),expr(ipv4.srcAddress.str() =~ "10.3.0.24"),expr(ipv4.srcAddress.str() =~ "10.3.0.28"),expr(ipv4.srcAddress.str() =~ "10.3.0.32"),expr(ipv4.srcAddress.str() =~ "10.3.0.36"),expr(ipv4.srcAddress.str() =~ "10.3.0.40"),expr(ipv4.srcAddress.str() =~ "10.3.0.44"),expr(ipv4.srcAddress.str() =~ "10.3.0.48"),expr(ipv4.srcAddress.str() =~ "10.3.0.52"),expr(ipv4.srcAddress.str() =~ "10.3.0.56"),expr(ipv4.srcAddress.str() =~ "10.3.0.60"),expr(ipv4.srcAddress.str() =~ "10.3.0.64"),expr(ipv4.srcAddress.str() =~ "10.3.0.68"),expr(ipv4.srcAddress.str() =~ "10.3.0.72"),expr(ipv4.srcAddress.str() =~ "10.3.0.76"),expr(ipv4.srcAddress.str() =~ "10.3.0.80"),expr(ipv4.srcAddress.str() =~ "10.3.0.84"),expr(ipv4.srcAddress.str() =~ "10.3.0.88"),expr(ipv4.srcAddress.str() =~ "10.3.0.92"),expr(ipv4.srcAddress.str() =~ "10.3.0.96"),expr(ipv4.srcAddress.str() =~ "10.3.0.100"),expr(ipv4.srcAddress.str() =~ "10.3.0.104"),expr(ipv4.srcAddress.str() =~ "10.3.0.108"),expr(ipv4.srcAddress.str() =~ "10.4.0.0"),expr(ipv4.srcAddress.str() =~ "10.4.0.4"),expr(ipv4.srcAddress.str() =~ "10.4.0.8"),expr(ipv4.srcAddress.str() =~ "10.4.0.12"),expr(ipv4.srcAddress.str() =~ "10.4.0.16")]
*.router1.ppp[0].queue.classifier.packetFilters = [expr(ipv4.destAddress.str() =~ "10.0.0.0"),expr(ipv4.destAddress.str() =~ "10.0.0.4"),expr(ipv4.destAddress.str() =~ "10.0.0.8"),expr(ipv4.destAddress.str() =~ "10.0.0.12"),expr(ipv4.destAddress.str() =~ "10.0.0.16"),expr(ipv4.destAddress.str() =~ "10.0.0.20"),expr(ipv4.destAddress.str() =~ "10.0.0.24"),expr(ipv4.destAddress.str() =~ "10.0.0.28"),expr(ipv4.destAddress.str() =~ "10.0.0.32"),expr(ipv4.destAddress.str() =~ "10.0.0.36"),expr(ipv4.destAddress.str() =~ "10.1.0.0"),expr(ipv4.destAddress.str() =~ "10.1.0.4"),expr(ipv4.destAddress.str() =~ "10.1.0.8"),expr(ipv4.destAddress.str() =~ "10.1.0.12"),expr(ipv4.destAddress.str() =~ "10.1.0.16"),expr(ipv4.destAddress.str() =~ "10.1.0.20"),expr(ipv4.destAddress.str() =~ "10.1.0.24"),expr(ipv4.destAddress.str() =~ "10.1.0.28"),expr(ipv4.destAddress.str() =~ "10.1.0.32"),expr(ipv4.destAddress.str() =~ "10.1.0.36"),expr(ipv4.destAddress.str() =~ "10.1.0.40"),expr(ipv4.destAddress.str() =~ "10.1.0.44"),expr(ipv4.destAddress.str() =~ "10.1.0.48"),expr(ipv4.destAddress.str() =~ "10.1.0.52"),expr(ipv4.destAddress.str() =~ "10.1.0.56"),expr(ipv4.destAddress.str() =~ "10.1.0.60"),expr(ipv4.destAddress.str() =~ "10.1.0.64"),expr(ipv4.destAddress.str() =~ "10.1.0.68"),expr(ipv4.destAddress.str() =~ "10.1.0.72"),expr(ipv4.destAddress.str() =~ "10.1.0.76"),expr(ipv4.destAddress.str() =~ "10.1.0.80"),expr(ipv4.destAddress.str() =~ "10.1.0.84"),expr(ipv4.destAddress.str() =~ "10.1.0.88"),expr(ipv4.destAddress.str() =~ "10.1.0.92"),expr(ipv4.destAddress.str() =~ "10.1.0.96"),expr(ipv4.destAddress.str() =~ "10.1.0.100"),expr(ipv4.destAddress.str() =~ "10.1.0.104"),expr(ipv4.destAddress.str() =~ "10.1.0.108"),expr(ipv4.destAddress.str() =~ "10.1.0.112"),expr(ipv4.destAddress.str() =~ "10.1.0.116"),expr(ipv4.destAddress.str() =~ "10.1.0.120"),expr(ipv4.destAddress.str() =~ "10.1.0.124"),expr(ipv4.destAddress.str() =~ "10.1.0.128"),expr(ipv4.destAddress.str() =~ "10.1.0.132"),expr(ipv4.destAddress.str() =~ "10.1.0.136"),expr(ipv4.destAddress.str() =~ "10.1.0.140"),expr(ipv4.destAddress.str() =~ "10.1.0.144"),expr(ipv4.destAddress.str() =~ "10.1.0.148"),expr(ipv4.destAddress.str() =~ "10.1.0.152"),expr(ipv4.destAddress.str() =~ "10.1.0.156"),expr(ipv4.destAddress.str() =~ "10.2.0.0"),expr(ipv4.destAddress.str() =~ "10.2.0.4"),expr(ipv4.destAddress.str() =~ "10.2.0.8"),expr(ipv4.destAddress.str() =~ "10.2.0.12"),expr(ipv4.destAddress.str() =~ "10.2.0.16"),expr(ipv4.destAddress.str() =~ "10.2.0.20"),expr(ipv4.destAddress.str() =~ "10.2.0.24"),expr(ipv4.destAddress.str() =~ "10.2.0.28"),expr(ipv4.destAddress.str() =~ "10.2.0.32"),expr(ipv4.destAddress.str() =~ "10.2.0.36"),expr(ipv4.destAddress.str() =~ "10.2.0.40"),expr(ipv4.destAddress.str() =~ "10.2.0.44"),expr(ipv4.destAddress.str() =~ "10.2.0.48"),expr(ipv4.destAddress.str() =~ "10.2.0.52"),expr(ipv4.destAddress.str() =~ "10.2.0.56"),expr(ipv4.destAddress.str() =~ "10.2.0.60"),expr(ipv4.destAddress.str() =~ "10.2.0.64"),expr(ipv4.destAddress.str() =~ "10.2.0.68"),expr(ipv4.destAddress.str() =~ "10.2.0.72"),expr(ipv4.destAddress.str() =~ "10.2.0.76"),expr(ipv4.destAddress.str() =~ "10.2.0.80"),expr(ipv4.destAddress.str() =~ "10.2.0.84"),expr(ipv4.destAddress.str() =~ "10.2.0.88"),expr(ipv4.destAddress.str() =~ "10.2.0.92"),expr(ipv4.destAddress.str() =~ "10.2.0.96"),expr(ipv4.destAddress.str() =~ "10.2.0.100"),expr(ipv4.destAddress.str() =~ "10.2.0.104"),expr(ipv4.destAddress.str() =~ "10.2.0.108"),expr(ipv4.destAddress.str() =~ "10.2.0.112"),expr(ipv4.destAddress.str() =~ "10.2.0.116"),expr(ipv4.destAddress.str() =~ "10.2.0.120"),expr(ipv4.destAddress.str() =~ "10.2.0.124"),expr(ipv4.destAddress.str() =~ "10.2.0.128"),expr(ipv4.destAddress.str() =~ "10.2.0.132"),expr(ipv4.destAddress.str() =~ "10.2.0.136"),expr(ipv4.destAddress.str() =~ "10.2.0.140"),expr(ipv4.destAddress.str() =~ "10.2.0.144"),expr(ipv4.destAddress.str() =~ "10.2.0.148"),expr(ipv4.destAddress.str() =~ "10.2.0.152"),expr(ipv4.destAddress.str() =~ "10.2.0.156"),expr(ipv4.destAddress.str() =~ "10.2.0.160"),expr(ipv4.destAddress.str() =~ "10.2.0.164"),expr(ipv4.destAddress.str() =~ "10.2.0.168"),expr(ipv4.destAddress.str() =~ "10.2.0.172"),expr(ipv4.destAddress.str() =~ "10.2.0.176"),expr(ipv4.destAddress.str() =~ "10.2.0.180"),expr(ipv4.destAddress.str() =~ "10.2.0.184"),expr(ipv4.destAddress.str() =~ "10.2.0.188"),expr(ipv4.destAddress.str() =~ "10.2.0.192"),expr(ipv4.destAddress.str() =~ "10.2.0.196"),expr(ipv4.destAddress.str() =~ "10.3.0.0"),expr(ipv4.destAddress.str() =~ "10.3.0.4"),expr(ipv4.destAddress.str() =~ "10.3.0.8"),expr(ipv4.destAddress.str() =~ "10.3.0.12"),expr(ipv4.destAddress.str() =~ "10.3.0.16"),expr(ipv4.destAddress.str() =~ "10.3.0.20"),expr(ipv4.destAddress.str() =~ "10.3.0.24"),expr(ipv4.destAddress.str() =~ "10.3.0.28"),expr(ipv4.destAddress.str() =~ "10.3.0.32"),expr(ipv4.destAddress.str() =~ "10.3.0.36"),expr(ipv4.destAddress.str() =~ "10.3.0.40"),expr(ipv4.destAddress.str() =~ "10.3.0.44"),expr(ipv4.destAddress.str() =~ "10.3.0.48"),expr(ipv4.destAddress.str() =~ "10.3.0.52"),expr(ipv4.destAddress.str() =~ "10.3.0.56"),expr(ipv4.destAddress.str() =~ "10.3.0.60"),expr(ipv4.destAddress.str() =~ "10.3.0.64"),expr(ipv4.destAddress.str() =~ "10.3.0.68"),expr(ipv4.destAddress.str() =~ "10.3.0.72"),expr(ipv4.destAddress.str() =~ "10.3.0.76"),expr(ipv4.destAddress.str() =~ "10.3.0.80"),expr(ipv4.destAddress.str() =~ "10.3.0.84"),expr(ipv4.destAddress.str() =~ "10.3.0.88"),expr(ipv4.destAddress.str() =~ "10.3.0.92"),expr(ipv4.destAddress.str() =~ "10.3.0.96"),expr(ipv4.destAddress.str() =~ "10.3.0.100"),expr(ipv4.destAddress.str() =~ "10.3.0.104"),expr(ipv4.destAddress.str() =~ "10.3.0.108"),expr(ipv4.destAddress.str() =~ "10.4.0.0"),expr(ipv4.destAddress.str() =~ "10.4.0.4"),expr(ipv4.destAddress.str() =~ "10.4.0.8"),expr(ipv4.destAddress.str() =~ "10.4.0.12"),expr(ipv4.destAddress.str() =~ "10.4.0.16")]

**.connFIX0.datarate = 100Mbps
**.connFIX0.delay = 40ms


[Config CNSM_Vidhalf_weighted]
description = "Configuration for CNSM_Vidhalf_weighted. All five applications. QoS employed. Guarantee Multiplier: 1; Ceil multiplier: 2"

extends = liteCbaselineTestTokenQoS_base

*.configurator.config = xmldoc("configs/routing/CNSM_Vidhalf_weightedRouting.xml")

include ./configs/startStop/CNSM_Vidhalf_weightedStartStop.ini

*.nVID = 50 # Number of video clients
*.nLVD = 28 # Number of live video client
*.nFDO = 5 # Number of file download clients
*.nSSH = 10 # Number of SSH clients
*.nVIP = 40 # Number of VoIP clients

*.ncVIP = 0 # Number of critical VoIP clients

*.router*.ppp[0].queue.typename = "HtbQueue"
*.router*.ppp[0].queue.numQueues = 133
*.router*.ppp[0].queue.queue[*].typename = "DropTailQueue"
*.router*.ppp[0].queue.packetCapacity = -1
*.router*.ppp[0].queue.htbHysterisis = false
*.router*.ppp[0].queue.scheduler.adjustHTBTreeValuesForCorectness = false
*.router*.ppp[0].queue.scheduler.checkHTBTreeValuesForCorectness = false
*.router*.ppp[0].queue.htbTreeConfig = readJSON("configs/htbTree/CNSM_Vidhalf_weighted.json")
*.router*.ppp[0].queue.classifier.defaultGateIndex = 0