[General]

#
# This file is an .ini file for running simulations for QoE and QoE-Sli-1 scenarios with atm: 
#       * 6 slices + QoS flows
#       * QoS flows
#

sim-time-limit=250s
num-rngs = 1
seed-0-mt = 5
output-scalar-file-append = false
record-eventlog = false
cmdenv-express-mode = false
cmdenv-output-file = log.txt
cmdenv-autoflush = true
**.cmdenv-log-level = FATAL

*.visualizer.*.interfaceTableVisualizer.displayInterfaceTables = true

**.tcp.typename = "Tcp"
**.udp.typename = "Udp"

**.packetCapacity = 500

# tcp general settings
**.tcp.advertisedWindow = 65535                      # in bytes, corresponds with the maximal receiver buffer capacity (Note: normally, NIC queues should be at least this size)
**.tcp.delayedAcksEnabled = false                    # delayed ACK algorithm (RFC 1122) enabled/disabled
**.tcp.nagleEnabled = true                           # Nagle's algorithm (RFC 896) enabled/disabled
**.tcp.limitedTransmitEnabled = false                # Limited Transmit algorithm (RFC 3042) enabled/disabled (can be used for TCPReno/TCPTahoe/TCPNewReno/TCPNoCongestionControl)
**.tcp.increasedIWEnabled = false                    # Increased Initial Window (RFC 3390) enabled/disabled
**.tcp.sackSupport = false                           # Selective Acknowledgment (RFC 2018, 2883, 3517) support (header option) (SACK will be enabled for a connection if both endpoints support it)
**.tcp.windowScalingSupport = false                  # Window Scale (RFC 1323) support (header option) (WS will be enabled for a connection if both endpoints support it)
**.tcp.timestampSupport = false                      # Timestamps (RFC 1323) support (header option) (TS will be enabled for a connection if both endpoints support it)
**.tcp.mss = 1452                                    # Maximum Segment Size (RFC 793) (header option)
**.tcp.tcpAlgorithmClass = "TcpReno"                 # TCPReno/TCPTahoe/TCPNewReno/TCPNoCongestionControl/DumbTCP

**.tcp.*.*.vector-recording = true
**.tcp.*.rtt.result-recording-modes = +vector
**.tcp.*.*.result-recording-modes = -vector
**.host*.app*.*.vector-recording = true
**.ppp.*xPk*.vector-recording = true
#**.ppp.queue.*.vector-recording = true
#**.ppp.queue.*.*.vector-recording = true
#*.router*.ppp[0].ppp.vector-recording = true
**.vector-recording = false

[Config liteCbaselineTestExampleTopoVisualizer]
description = "Visualize base topology"
network = baselineTestQoS

sim-time-limit=400s

output-vector-file = "${resultdir}/${configname}/${configname}-${runnumber}.vec"
output-scalar-file = "${resultdir}/${configname}/${configname}-${runnumber}.sca"

*.visualizer.*.interfaceTableVisualizer.displayInterfaceTables = false

**.crcMode = "computed"

*.nVID = ${numCli=1,2,10,20,30,40,50,60,70,80} # Number of video clients
*.nLVD = ${numCli} # Number of file download clients
*.nFDO = ${numCli} # Number of file download clients
*.nSSH = ${numCli} # Number of SSH clients
*.nVIP = ${numCli} # Number of VoIP clients
*.ncVIP = ${numCli} # Number of critical VoIP clients

**.numApps = 0

[Config liteCbaselineTestTokenQoS_base]
description = "All five applications - base configuration without any resource allocation"
network = baselineTestQoS
sim-time-limit=400s

output-vector-file = "${resultdir}/${configname}/${configname}-${runnumber}.vec"
output-scalar-file = "${resultdir}/${configname}/${configname}-${runnumber}.sca"

**.crcMode = "computed"
*.host*.numApps = 1

#*.configurator.config = liteCbaselineTestTokenQoS_basexmldoc("configs/baseQoS/routerConfigBaseHtbTest.xml")

# File download client
*.hostFDO[*].hasTcp = true
*.hostFDO[*].app[0].typename = "TcpFileDownloadApp"
*.hostFDO[*].app[0].localAddress = ""
*.hostFDO[*].app[0].localPort = -1 # port number to listen on
*.hostFDO[*].app[0].connectAddress = "serverFDO" # server address (may be symbolic)
*.hostFDO[*].app[0].connectPort = 1042 # port number to connect to
*.hostFDO[*].app[0].startTime = uniform(0.01s,1s) # time first session begins
*.hostFDO[*].app[0].stopTime = -1s # time of finishing sending, negative values mean forever
*.hostFDO[*].app[0].numRequestsPerSession = 1 # number of requests sent per session
*.hostFDO[*].app[0].requestLength = 800B # length of a request
*.hostFDO[*].app[0].replyLength = 10000KiB # length of a reply
*.hostFDO[*].app[0].thinkTime = 0.01s # time gap between requests
*.hostFDO[*].app[0].idleInterval = 1s # time gap between sessions
*.hostFDO[*].app[0].reconnectInterval = 1s # if connection breaks, waits this much before trying to reconnect
*.hostFDO[*].app[0].stopOperationExtraTime = -1s # extra time after lifecycle stop operation finished
*.hostFDO[*].app[0].stopOperationTimeout = 2s # timeout value for lifecycle stop operation

# File download server
*.serverFDO.hasTcp = true
*.serverFDO.numApps = 1
*.serverFDO.app[0].typename = "TcpGenericServerApp"
*.serverFDO.app[0].localAddress = "" # local address; may be left empty ("")
*.serverFDO.app[0].localPort = 1042 # localPort number to listen on
*.serverFDO.app[0].replyDelay = 0s #
*.serverFDO.app[0].stopOperationExtraTime = -1s # extra time after lifecycle stop operation finished
*.serverFDO.app[0].stopOperationTimeout  = 2s # timeout value for lifecycle stop operation

# Video client
**.hostVID[*].hasTcp = true
**.hostVID[*].app[0].typename = "improved5gns.apps.TCPVideoStreamCliAppV2lite"
**.hostVID[*].app[0].localAddress = "" # may be left empty ("")
**.hostVID[*].app[0].localPort = -1 # port number to listen on
**.hostVID[*].app[0].connectAddress = "serverVID" # server address (may be symbolic)
**.hostVID[*].app[0].connectPort = 1042 # port number to connect to
**.hostVID[*].app[0].dataTransferMode = "object"
**.hostVID[*].app[0].startTime = uniform(0.01s,1s) # time first session begins
**.hostVID[*].app[0].stopTime = -1s # time of finish sending, 0 means infinity
**.hostVID[*].app[0].idleInterval = 1s
**.hostVID[*].app[0].requestLength = 200B # length of a request
**.hostVID[*].app[0].reconnectInterval = 1s # if connection breaks, waits this much before trying to reconnect
**.hostVID[*].app[0].numRequestsPerSession = 1 # number of requests sent per session
**.hostVID[*].app[0].thinkTime = 1s # time gap between requests
**.hostVID[*].app[0].video_resolution = "360 480 720 1080" # how many kbits are required for 1 second of video for each representation (quality levels)
**.hostVID[*].app[0].manifest_size = 100000
**.hostVID[*].app[0].video_buffer_max_length = 40s # buffer max length in seconds
**.hostVID[*].app[0].video_duration = int(uniform(240s,320s)) # video length in seconds
**.hostVID[*].app[0].segment_length = 5s # video segment length in seconds
**.hostVID[*].app[0].useFlexibleBitrate = "flexible"

# Video server
*.serverVID.hasTcp = true
*.serverVID.numApps = 1
*.serverVID.app[0].typename = "TcpGenericServerApp"
*.serverVID.app[0].localAddress = "" # local address; may be left empty ("")
*.serverVID.app[0].localPort = 1042 # localPort number to listen on
*.serverVID.app[0].replyDelay = 0s #
*.serverVID.app[0].stopOperationExtraTime = -1s # extra time after lifecycle stop operation finished
*.serverVID.app[0].stopOperationTimeout  = 2s # timeout value for lifecycle stop operation

# Live Video client
**.hostLVD[*].hasTcp = true
**.hostLVD[*].app[0].typename = "TCPLiveVideoStreamCliAppLite"
**.hostLVD[*].app[0].localAddress = "" # may be left empty ("")
**.hostLVD[*].app[0].localPort = -1 # port number to listen on
**.hostLVD[*].app[0].connectAddress = "serverLVD" # server address (may be symbolic)
**.hostLVD[*].app[0].connectPort = 1043 # port number to connect to
**.hostLVD[*].app[0].dataTransferMode = "object"
**.hostLVD[*].app[0].startTime = uniform(0.01s,1s) # time first session begins
**.hostLVD[*].app[0].stopTime = -1s # time of finish sending, 0 means infinity
**.hostLVD[*].app[0].idleInterval = 1s
**.hostLVD[*].app[0].requestLength = 200B # length of a request
**.hostLVD[*].app[0].reconnectInterval = 1s # if connection breaks, waits this much before trying to reconnect
**.hostLVD[*].app[0].numRequestsPerSession = 1 # number of requests sent per session
**.hostLVD[*].app[0].thinkTime = 1s # time gap between requests
**.hostLVD[*].app[0].video_resolution = "240 360 480 720 1080" # how many kbits are required for 1 second of video for each representation (quality levels)
**.hostLVD[*].app[0].manifest_size = 100000
**.hostLVD[*].app[0].video_buffer_max_length = 6s # buffer max length in seconds
**.hostLVD[*].app[0].video_duration = int(uniform(40s,70s)) # video length in seconds
**.hostLVD[*].app[0].segment_length = 1s # video segment length in seconds
**.hostLVD[*].app[0].useFlexibleBitrate = "flexible"
**.hostLVD[*].app[0].video_type = "live"
**.hostLVD[*].app[0].delay_threshold = 4
**.hostLVD[*].app[0].speedup_rate = 1.05

# Live Video server
*.serverLVD.hasTcp = true
*.serverLVD.numApps = 1
*.serverLVD.app[0].typename = "TcpGenericServerApp"
*.serverLVD.app[0].localAddress = "" # local address; may be left empty ("")
*.serverLVD.app[0].localPort = 1043 # localPort number to listen on
*.serverLVD.app[0].replyDelay = 0s #
*.serverLVD.app[0].stopOperationExtraTime = -1s # extra time after lifecycle stop operation finished
*.serverLVD.app[0].stopOperationTimeout  = 2s # timeout value for lifecycle stop operation

# Remote Shell Client
**.hostSSH[*].hasTcp = true
**.hostSSH[*].app[0].typename = "TcpSimpleSshAppV2lite"
**.hostSSH[*].app[0].localAddress = "" # local address or empty ("")
**.hostSSH[*].app[0].localPort = -1 # local port number
**.hostSSH[*].app[0].connectAddress = "serverSSH" # server address (may be symbolic)
**.hostSSH[*].app[0].connectPort = 22  # port number to connect to
**.hostSSH[*].app[0].startTime = uniform(0.01s,1s) # time first session begins
**.hostSSH[*].app[0].stopTime = -1s # time of finishing sending, negative values mean forever
**.hostSSH[*].app[0].numCommands = 1 # user types this many commands in a session
**.hostSSH[*].app[0].commandLength = 10B # commands are this many characters (plus Enter)
**.hostSSH[*].app[0].keyPressDelay = 0.05s # delay between keypresses
**.hostSSH[*].app[0].commandOutputLength = 500B # commands produce this much output
**.hostSSH[*].app[0].thinkTime = 1s # user waits this much before starting to type new command
**.hostSSH[*].app[0].idleInterval = 1s # time gap between sessions
**.hostSSH[*].app[0].reconnectInterval = 1s # if connection breaks, user waits this much before trying to reconnect
**.hostSSH[*].app[0].stopOperationExtraTime = -1s # extra time after lifecycle stop operation finished
**.hostSSH[*].app[0].stopOperationTimeout = 2s # timeout value for lifecycle stop operation

# SSH server
*.serverSSH.hasTcp = true
*.serverSSH.numApps = 1
*.serverSSH.app[*].typename = "TcpGenericServerApp"
*.serverSSH.app[*].localAddress = "" # local address; may be left empty ("")
*.serverSSH.app[*].localPort = 22 # localPort number to listen on
*.serverSSH.app[*].replyDelay = 0s #
*.serverSSH.app[*].stopOperationExtraTime = -1s # extra time after lifecycle stop operation finished
*.serverSSH.app[*].stopOperationTimeout  = 2s # timeout value for lifecycle stop operation

# VoIP receiver
**.hostVIP[*].hasUdp = true
**.hostVIP[*].app[0].typename = "SimpleVoipReceiver"
**.hostVIP[*].app[0].localPort = 2000
**.hostVIP[*].app[0].emodelIe = 5 # Equipment impairment factor
**.hostVIP[*].app[0].emodelBpl = 10 # Packet-loss robustness factor
**.hostVIP[*].app[0].emodelA = 5 # Advantage factor
**.hostVIP[*].app[0].emodelRo = 93.2 # Basic signal-to-noise ratio
**.hostVIP[*].app[0].playoutDelay = 20ms # initial delay for beginning playout after receiving the first packet
**.hostVIP[*].app[0].adaptivePlayoutDelay = false # if true, adjust playoutDelay after each talkspurt
**.hostVIP[*].app[0].bufferSpace = 20 # buffer size in packets
**.hostVIP[*].app[0].mosSpareTime = 1s # spare time before calculating MOS (after calculated playout time of last packet)

# VoIP sender
**.serverVIP.hasUdp = true
**.serverVIP.numApps = parent.nVIP
**.serverVIP.app[*].typename = "SimpleVoipSender"
**.serverVIP.app[*].localPort = -1
**.serverVIP.app[*].destAddress = "hostVIP[" + string(index) + "]"
**.serverVIP.app[*].destPort = 2000
**.serverVIP.app[*].talkPacketSize = 40B # size of talk packets in bytes
**.serverVIP.app[*].talkspurtDuration = weibull(1.423s, 0.824s)
**.serverVIP.app[*].silenceDuration = weibull(0.899s, 1.089s)
**.serverVIP.app[*].packetizationInterval = 20ms # interval between sending voice packets
**.serverVIP.app[*].startTime = uniform(0.01s,1s) # time of start sending
**.serverVIP.app[*].stopTime = -1s # time of end of sending, -1 means forever

# Critical VoIP receiver
**.hostcVIP[*].hasUdp = true
**.hostcVIP[*].app[0].typename = "improved5gns.apps.SimpleVoipReceiverCustom"
**.hostcVIP[*].app[0].localPort = 2000
**.hostcVIP[*].app[0].emodelIe = 5 # Equipment impairment factor
**.hostcVIP[*].app[0].emodelBpl = 10 # Packet-loss robustness factor
**.hostcVIP[*].app[0].emodelA = 5 # Advantage factor
**.hostcVIP[*].app[0].emodelRo = 93.2 # Basic signal-to-noise ratio
**.hostcVIP[*].app[0].playoutDelay = 20ms # initial delay for beginning playout after receiving the first packet
**.hostcVIP[*].app[0].adaptivePlayoutDelay = false # if true, adjust playoutDelay after each talkspurt
**.hostcVIP[*].app[0].bufferSpace = 20 # buffer size in packets
**.hostcVIP[*].app[0].mosSpareTime = 1s # spare time before calculating MOS (after calculated playout time of last packet)

# Critical VoIP sender
**.servercVIP.hasUdp = true
**.servercVIP.numApps = parent.ncVIP
**.servercVIP.app[*].typename = "improved5gns.apps.SimpleVoipSenderCustom"
**.servercVIP.app[*].localPort = -1
**.servercVIP.app[*].destPort = 2000
**.servercVIP.app[*].destAddress = "hostcVIP[" + string(index) + "]"
**.servercVIP.app[*].talkPacketSize = 40B # size of talk packets in bytes
**.servercVIP.app[*].talkspurtDuration = weibull(1.423s, 0.824s)
**.servercVIP.app[*].silenceDuration = weibull(0.899s, 1.089s)
**.servercVIP.app[*].packetizationInterval = 2ms # interval between sending voice packets, changed from 20ms to 2ms for Critical VIP
**.servercVIP.app[*].startTime = uniform(0.01s,1s) # time of start sending
**.servercVIP.app[*].stopTime = -1s # time of end of sending, -1 means forever


[Config testing5slices1client]
description = "Configuration for testingConfigurator5slices. All five applications. QoS employed. Guarantee Multiplier: 1; Ceil multiplier: 2"

extends = liteCbaselineTestTokenQoS_base

*.configurator.config = xmldoc("configs/routing/testingConfigurator5slicesRouting.xml")

sim-time-limit=150s

*.nVID = 1 # Number of video clients
*.nLVD = 1 # Number of live video client
*.nFDO = 1 # Number of file download clients
*.nSSH = 1 # Number of SSH clients
*.nVIP = 1 # Number of VoIP clients

*.ncVIP = 0 # Number of critical VoIP clients

*.router*.ppp[0].queue.typename = "HtbQueue"
*.router*.ppp[0].queue.numQueues = 5
*.router*.ppp[0].queue.queue[*].typename = "DropTailQueue"
*.router*.ppp[0].queue.packetCapacity = -1
*.router*.ppp[0].queue.htbHysterisis = false
*.router*.ppp[0].queue.scheduler.adjustHTBTreeValuesForCorectness = false
*.router*.ppp[0].queue.scheduler.checkHTBTreeValuesForCorectness = false
*.router*.ppp[0].queue.htbTreeConfig = readJSON("configs/htbTree/AllSlices.json")
*.router*.ppp[0].queue.classifier.defaultGateIndex = 0
*.router0.ppp[0].queue.classifier.packetFilters = [expr(ipv4.srcAddress.str() =~ "10.0.0.0"),expr(ipv4.srcAddress.str() =~ "10.0.0.4"),expr(ipv4.srcAddress.str() =~ "10.0.0.8"),expr(ipv4.srcAddress.str() =~ "10.0.0.12"),expr(ipv4.srcAddress.str() =~ "10.0.0.16")]
*.router1.ppp[0].queue.classifier.packetFilters = [expr(ipv4.destAddress.str() =~ "10.0.0.0"),expr(ipv4.destAddress.str() =~ "10.0.0.4"),expr(ipv4.destAddress.str() =~ "10.0.0.8"),expr(ipv4.destAddress.str() =~ "10.0.0.12"),expr(ipv4.destAddress.str() =~ "10.0.0.16")]

**.connFIX0.datarate = 100Mbps
**.connFIX0.delay = 40ms

[Config testingConfigurator5slices]
description = "Configuration for testingConfigurator5slices. All five applications. QoS employed. Guarantee Multiplier: 1; Ceil multiplier: 2"

extends = liteCbaselineTestTokenQoS_base

*.configurator.config = xmldoc("configs/routing/testingConfigurator5slicesRouting.xml")

*.nVID = 33 # Number of video clients
*.nLVD = 130 # Number of live video client
*.nFDO = 84 # Number of file download clients
*.nSSH = 201 # Number of SSH clients
*.nVIP = 100 # Number of VoIP clients

*.ncVIP = 0 # Number of critical VoIP clients

**.hostSSH[*].app[0].startTime = 0s
**.hostSSH[*].app[0].stopTime = 8s
**.hostSSH[*].app[1].startTime = 0s
**.hostSSH[*].app[1].stopTime = 7s
**.hostSSH[*].app[2].startTime = 0s
**.hostSSH[*].app[2].stopTime = 10s
**.hostSSH[*].app[3].startTime = 0s
**.hostSSH[*].app[3].stopTime = 4s
**.hostSSH[*].app[4].startTime = 0s
**.hostSSH[*].app[4].stopTime = 5s
**.hostSSH[*].app[5].startTime = 0s
**.hostSSH[*].app[5].stopTime = 7s
**.hostSSH[*].app[6].startTime = 0s
**.hostSSH[*].app[6].stopTime = 8s
**.hostSSH[*].app[7].startTime = 0s
**.hostSSH[*].app[7].stopTime = 6s
**.hostSSH[*].app[8].startTime = 1s
**.hostSSH[*].app[8].stopTime = 9s
**.hostSSH[*].app[9].startTime = 1s
**.hostSSH[*].app[9].stopTime = 6s
**.hostSSH[*].app[10].startTime = 1s
**.hostSSH[*].app[10].stopTime = 5s
**.hostSSH[*].app[11].startTime = 2s
**.hostSSH[*].app[11].stopTime = 7s
**.hostSSH[*].app[12].startTime = 2s
**.hostSSH[*].app[12].stopTime = 7s
**.hostSSH[*].app[13].startTime = 2s
**.hostSSH[*].app[13].stopTime = 10s
**.hostSSH[*].app[14].startTime = 2s
**.hostSSH[*].app[14].stopTime = 7s
**.hostSSH[*].app[15].startTime = 3s
**.hostSSH[*].app[15].stopTime = 9s
**.hostSSH[*].app[16].startTime = 3s
**.hostSSH[*].app[16].stopTime = 9s
**.hostSSH[*].app[17].startTime = 3s
**.hostSSH[*].app[17].stopTime = 7s
**.hostSSH[*].app[18].startTime = 3s
**.hostSSH[*].app[18].stopTime = 6s
**.hostSSH[*].app[19].startTime = 3s
**.hostSSH[*].app[19].stopTime = 9s
**.hostSSH[*].app[20].startTime = 4s
**.hostSSH[*].app[20].stopTime = 14s
**.hostSSH[*].app[21].startTime = 4s
**.hostSSH[*].app[21].stopTime = 9s
**.hostSSH[*].app[22].startTime = 4s
**.hostSSH[*].app[22].stopTime = 11s
**.hostSSH[*].app[23].startTime = 4s
**.hostSSH[*].app[23].stopTime = 10s
**.hostSSH[*].app[24].startTime = 4s
**.hostSSH[*].app[24].stopTime = 7s
**.hostSSH[*].app[25].startTime = 4s
**.hostSSH[*].app[25].stopTime = 7s
**.hostSSH[*].app[26].startTime = 4s
**.hostSSH[*].app[26].stopTime = 10s
**.hostSSH[*].app[27].startTime = 4s
**.hostSSH[*].app[27].stopTime = 15s
**.hostSSH[*].app[28].startTime = 5s
**.hostSSH[*].app[28].stopTime = 12s
**.hostSSH[*].app[29].startTime = 5s
**.hostSSH[*].app[29].stopTime = 16s
**.hostSSH[*].app[30].startTime = 5s
**.hostSSH[*].app[30].stopTime = 11s
**.hostSSH[*].app[31].startTime = 5s
**.hostSSH[*].app[31].stopTime = 15s
**.hostSSH[*].app[32].startTime = 6s
**.hostSSH[*].app[32].stopTime = 12s
**.hostSSH[*].app[33].startTime = 6s
**.hostSSH[*].app[33].stopTime = 11s
**.hostSSH[*].app[34].startTime = 6s
**.hostSSH[*].app[34].stopTime = 7s
**.hostSSH[*].app[35].startTime = 6s
**.hostSSH[*].app[35].stopTime = 14s
**.hostSSH[*].app[36].startTime = 7s
**.hostSSH[*].app[36].stopTime = 15s
**.hostSSH[*].app[37].startTime = 7s
**.hostSSH[*].app[37].stopTime = 15s
**.hostSSH[*].app[38].startTime = 7s
**.hostSSH[*].app[38].stopTime = 11s
**.hostSSH[*].app[39].startTime = 7s
**.hostSSH[*].app[39].stopTime = 13s
**.hostSSH[*].app[40].startTime = 7s
**.hostSSH[*].app[40].stopTime = 22s
**.hostSSH[*].app[41].startTime = 7s
**.hostSSH[*].app[41].stopTime = 12s
**.hostSSH[*].app[42].startTime = 7s
**.hostSSH[*].app[42].stopTime = 13s
**.hostSSH[*].app[43].startTime = 9s
**.hostSSH[*].app[43].stopTime = 15s
**.hostSSH[*].app[44].startTime = 9s
**.hostSSH[*].app[44].stopTime = 16s
**.hostSSH[*].app[45].startTime = 9s
**.hostSSH[*].app[45].stopTime = 15s
**.hostSSH[*].app[46].startTime = 9s
**.hostSSH[*].app[46].stopTime = 14s
**.hostSSH[*].app[47].startTime = 10s
**.hostSSH[*].app[47].stopTime = 13s
**.hostSSH[*].app[48].startTime = 10s
**.hostSSH[*].app[48].stopTime = 17s
**.hostSSH[*].app[49].startTime = 10s
**.hostSSH[*].app[49].stopTime = 14s
**.hostSSH[*].app[50].startTime = 11s
**.hostSSH[*].app[50].stopTime = 18s
**.hostSSH[*].app[51].startTime = 11s
**.hostSSH[*].app[51].stopTime = 17s
**.hostSSH[*].app[52].startTime = 11s
**.hostSSH[*].app[52].stopTime = 14s
**.hostSSH[*].app[53].startTime = 12s
**.hostSSH[*].app[53].stopTime = 18s
**.hostSSH[*].app[54].startTime = 12s
**.hostSSH[*].app[54].stopTime = 16s
**.hostSSH[*].app[55].startTime = 13s
**.hostSSH[*].app[55].stopTime = 22s
**.hostSSH[*].app[56].startTime = 13s
**.hostSSH[*].app[56].stopTime = 20s
**.hostSSH[*].app[57].startTime = 13s
**.hostSSH[*].app[57].stopTime = 19s
**.hostSSH[*].app[58].startTime = 14s
**.hostSSH[*].app[58].stopTime = 23s
**.hostSSH[*].app[59].startTime = 14s
**.hostSSH[*].app[59].stopTime = 23s
**.hostSSH[*].app[60].startTime = 14s
**.hostSSH[*].app[60].stopTime = 22s
**.hostSSH[*].app[61].startTime = 14s
**.hostSSH[*].app[61].stopTime = 18s
**.hostSSH[*].app[62].startTime = 15s
**.hostSSH[*].app[62].stopTime = 22s
**.hostSSH[*].app[63].startTime = 15s
**.hostSSH[*].app[63].stopTime = 26s
**.hostSSH[*].app[64].startTime = 15s
**.hostSSH[*].app[64].stopTime = 19s
**.hostSSH[*].app[65].startTime = 16s
**.hostSSH[*].app[65].stopTime = 23s
**.hostSSH[*].app[66].startTime = 16s
**.hostSSH[*].app[66].stopTime = 23s
**.hostSSH[*].app[67].startTime = 16s
**.hostSSH[*].app[67].stopTime = 24s
**.hostSSH[*].app[68].startTime = 17s
**.hostSSH[*].app[68].stopTime = 26s
**.hostSSH[*].app[69].startTime = 17s
**.hostSSH[*].app[69].stopTime = 22s
**.hostSSH[*].app[70].startTime = 17s
**.hostSSH[*].app[70].stopTime = 26s
**.hostSSH[*].app[71].startTime = 17s
**.hostSSH[*].app[71].stopTime = 21s
**.hostSSH[*].app[72].startTime = 17s
**.hostSSH[*].app[72].stopTime = 22s
**.hostSSH[*].app[73].startTime = 18s
**.hostSSH[*].app[73].stopTime = 22s
**.hostSSH[*].app[74].startTime = 18s
**.hostSSH[*].app[74].stopTime = 24s
**.hostSSH[*].app[75].startTime = 18s
**.hostSSH[*].app[75].stopTime = 27s
**.hostSSH[*].app[76].startTime = 18s
**.hostSSH[*].app[76].stopTime = 23s
**.hostSSH[*].app[77].startTime = 18s
**.hostSSH[*].app[77].stopTime = 25s
**.hostSSH[*].app[78].startTime = 18s
**.hostSSH[*].app[78].stopTime = 27s
**.hostSSH[*].app[79].startTime = 18s
**.hostSSH[*].app[79].stopTime = 22s
**.hostSSH[*].app[80].startTime = 19s
**.hostSSH[*].app[80].stopTime = 22s
**.hostSSH[*].app[81].startTime = 19s
**.hostSSH[*].app[81].stopTime = 26s
**.hostSSH[*].app[82].startTime = 19s
**.hostSSH[*].app[82].stopTime = 23s
**.hostSSH[*].app[83].startTime = 19s
**.hostSSH[*].app[83].stopTime = 25s
**.hostSSH[*].app[84].startTime = 20s
**.hostSSH[*].app[84].stopTime = 25s
**.hostSSH[*].app[85].startTime = 20s
**.hostSSH[*].app[85].stopTime = 23s
**.hostSSH[*].app[86].startTime = 20s
**.hostSSH[*].app[86].stopTime = 22s
**.hostSSH[*].app[87].startTime = 20s
**.hostSSH[*].app[87].stopTime = 26s
**.hostSSH[*].app[88].startTime = 20s
**.hostSSH[*].app[88].stopTime = 29s
**.hostSSH[*].app[89].startTime = 21s
**.hostSSH[*].app[89].stopTime = 28s
**.hostSSH[*].app[90].startTime = 21s
**.hostSSH[*].app[90].stopTime = 25s
**.hostSSH[*].app[91].startTime = 22s
**.hostSSH[*].app[91].stopTime = 32s
**.hostSSH[*].app[92].startTime = 22s
**.hostSSH[*].app[92].stopTime = 28s
**.hostSSH[*].app[93].startTime = 22s
**.hostSSH[*].app[93].stopTime = 32s
**.hostSSH[*].app[94].startTime = 23s
**.hostSSH[*].app[94].stopTime = 29s
**.hostSSH[*].app[95].startTime = 23s
**.hostSSH[*].app[95].stopTime = 25s
**.hostSSH[*].app[96].startTime = 23s
**.hostSSH[*].app[96].stopTime = 32s
**.hostSSH[*].app[97].startTime = 23s
**.hostSSH[*].app[97].stopTime = 28s
**.hostSSH[*].app[98].startTime = 23s
**.hostSSH[*].app[98].stopTime = 28s
**.hostSSH[*].app[99].startTime = 24s
**.hostSSH[*].app[99].stopTime = 29s
**.hostSSH[*].app[100].startTime = 24s
**.hostSSH[*].app[100].stopTime = 32s
**.hostSSH[*].app[101].startTime = 25s
**.hostSSH[*].app[101].stopTime = 29s
**.hostSSH[*].app[102].startTime = 25s
**.hostSSH[*].app[102].stopTime = 28s
**.hostSSH[*].app[103].startTime = 25s
**.hostSSH[*].app[103].stopTime = 29s
**.hostSSH[*].app[104].startTime = 25s
**.hostSSH[*].app[104].stopTime = 27s
**.hostSSH[*].app[105].startTime = 25s
**.hostSSH[*].app[105].stopTime = 30s
**.hostSSH[*].app[106].startTime = 25s
**.hostSSH[*].app[106].stopTime = 28s
**.hostSSH[*].app[107].startTime = 26s
**.hostSSH[*].app[107].stopTime = 33s
**.hostSSH[*].app[108].startTime = 26s
**.hostSSH[*].app[108].stopTime = 30s
**.hostSSH[*].app[109].startTime = 26s
**.hostSSH[*].app[109].stopTime = 32s
**.hostSSH[*].app[110].startTime = 26s
**.hostSSH[*].app[110].stopTime = 31s
**.hostSSH[*].app[111].startTime = 26s
**.hostSSH[*].app[111].stopTime = 29s
**.hostSSH[*].app[112].startTime = 26s
**.hostSSH[*].app[112].stopTime = 37s
**.hostSSH[*].app[113].startTime = 26s
**.hostSSH[*].app[113].stopTime = 33s
**.hostSSH[*].app[114].startTime = 26s
**.hostSSH[*].app[114].stopTime = 33s
**.hostSSH[*].app[115].startTime = 27s
**.hostSSH[*].app[115].stopTime = 32s
**.hostSSH[*].app[116].startTime = 27s
**.hostSSH[*].app[116].stopTime = 32s
**.hostSSH[*].app[117].startTime = 27s
**.hostSSH[*].app[117].stopTime = 33s
**.hostSSH[*].app[118].startTime = 27s
**.hostSSH[*].app[118].stopTime = 36s
**.hostSSH[*].app[119].startTime = 27s
**.hostSSH[*].app[119].stopTime = 32s
**.hostSSH[*].app[120].startTime = 28s
**.hostSSH[*].app[120].stopTime = 31s
**.hostSSH[*].app[121].startTime = 28s
**.hostSSH[*].app[121].stopTime = 30s
**.hostSSH[*].app[122].startTime = 28s
**.hostSSH[*].app[122].stopTime = 33s
**.hostSSH[*].app[123].startTime = 28s
**.hostSSH[*].app[123].stopTime = 31s
**.hostSSH[*].app[124].startTime = 28s
**.hostSSH[*].app[124].stopTime = 35s
**.hostSSH[*].app[125].startTime = 29s
**.hostSSH[*].app[125].stopTime = 33s
**.hostSSH[*].app[126].startTime = 29s
**.hostSSH[*].app[126].stopTime = 35s
**.hostSSH[*].app[127].startTime = 29s
**.hostSSH[*].app[127].stopTime = 37s
**.hostSSH[*].app[128].startTime = 29s
**.hostSSH[*].app[128].stopTime = 31s
**.hostSSH[*].app[129].startTime = 30s
**.hostSSH[*].app[129].stopTime = 33s
**.hostSSH[*].app[130].startTime = 30s
**.hostSSH[*].app[130].stopTime = 37s
**.hostSSH[*].app[131].startTime = 30s
**.hostSSH[*].app[131].stopTime = 33s
**.hostSSH[*].app[132].startTime = 31s
**.hostSSH[*].app[132].stopTime = 39s
**.hostSSH[*].app[133].startTime = 31s
**.hostSSH[*].app[133].stopTime = 38s
**.hostSSH[*].app[134].startTime = 31s
**.hostSSH[*].app[134].stopTime = 36s
**.hostSSH[*].app[135].startTime = 32s
**.hostSSH[*].app[135].stopTime = 42s
**.hostSSH[*].app[136].startTime = 32s
**.hostSSH[*].app[136].stopTime = 35s
**.hostSSH[*].app[137].startTime = 32s
**.hostSSH[*].app[137].stopTime = 37s
**.hostSSH[*].app[138].startTime = 33s
**.hostSSH[*].app[138].stopTime = 36s
**.hostSSH[*].app[139].startTime = 33s
**.hostSSH[*].app[139].stopTime = 37s
**.hostSSH[*].app[140].startTime = 33s
**.hostSSH[*].app[140].stopTime = 36s
**.hostSSH[*].app[141].startTime = 33s
**.hostSSH[*].app[141].stopTime = 37s
**.hostSSH[*].app[142].startTime = 34s
**.hostSSH[*].app[142].stopTime = 43s
**.hostSSH[*].app[143].startTime = 34s
**.hostSSH[*].app[143].stopTime = 40s
**.hostSSH[*].app[144].startTime = 34s
**.hostSSH[*].app[144].stopTime = 38s
**.hostSSH[*].app[145].startTime = 34s
**.hostSSH[*].app[145].stopTime = 39s
**.hostSSH[*].app[146].startTime = 35s
**.hostSSH[*].app[146].stopTime = 38s
**.hostSSH[*].app[147].startTime = 35s
**.hostSSH[*].app[147].stopTime = 38s
**.hostSSH[*].app[148].startTime = 35s
**.hostSSH[*].app[148].stopTime = 44s
**.hostSSH[*].app[149].startTime = 35s
**.hostSSH[*].app[149].stopTime = 46s
**.hostSSH[*].app[150].startTime = 36s
**.hostSSH[*].app[150].stopTime = 40s
**.hostSSH[*].app[151].startTime = 36s
**.hostSSH[*].app[151].stopTime = 41s
**.hostSSH[*].app[152].startTime = 37s
**.hostSSH[*].app[152].stopTime = 42s
**.hostSSH[*].app[153].startTime = 37s
**.hostSSH[*].app[153].stopTime = 44s
**.hostSSH[*].app[154].startTime = 37s
**.hostSSH[*].app[154].stopTime = 40s
**.hostSSH[*].app[155].startTime = 38s
**.hostSSH[*].app[155].stopTime = 40s
**.hostSSH[*].app[156].startTime = 38s
**.hostSSH[*].app[156].stopTime = 44s
**.hostSSH[*].app[157].startTime = 38s
**.hostSSH[*].app[157].stopTime = 42s
**.hostSSH[*].app[158].startTime = 38s
**.hostSSH[*].app[158].stopTime = 42s
**.hostSSH[*].app[159].startTime = 38s
**.hostSSH[*].app[159].stopTime = 46s
**.hostSSH[*].app[160].startTime = 39s
**.hostSSH[*].app[160].stopTime = 46s
**.hostSSH[*].app[161].startTime = 39s
**.hostSSH[*].app[161].stopTime = 46s
**.hostSSH[*].app[162].startTime = 40s
**.hostSSH[*].app[162].stopTime = 47s
**.hostSSH[*].app[163].startTime = 40s
**.hostSSH[*].app[163].stopTime = 46s
**.hostSSH[*].app[164].startTime = 40s
**.hostSSH[*].app[164].stopTime = 45s
**.hostSSH[*].app[165].startTime = 40s
**.hostSSH[*].app[165].stopTime = 46s
**.hostSSH[*].app[166].startTime = 40s
**.hostSSH[*].app[166].stopTime = 51s
**.hostSSH[*].app[167].startTime = 40s
**.hostSSH[*].app[167].stopTime = 48s
**.hostSSH[*].app[168].startTime = 40s
**.hostSSH[*].app[168].stopTime = 47s
**.hostSSH[*].app[169].startTime = 41s
**.hostSSH[*].app[169].stopTime = 45s
**.hostSSH[*].app[170].startTime = 41s
**.hostSSH[*].app[170].stopTime = 47s
**.hostSSH[*].app[171].startTime = 41s
**.hostSSH[*].app[171].stopTime = 50s
**.hostSSH[*].app[172].startTime = 42s
**.hostSSH[*].app[172].stopTime = 47s
**.hostSSH[*].app[173].startTime = 42s
**.hostSSH[*].app[173].stopTime = 54s
**.hostSSH[*].app[174].startTime = 42s
**.hostSSH[*].app[174].stopTime = 48s
**.hostSSH[*].app[175].startTime = 42s
**.hostSSH[*].app[175].stopTime = 50s
**.hostSSH[*].app[176].startTime = 42s
**.hostSSH[*].app[176].stopTime = 51s
**.hostSSH[*].app[177].startTime = 43s
**.hostSSH[*].app[177].stopTime = 50s
**.hostSSH[*].app[178].startTime = 43s
**.hostSSH[*].app[178].stopTime = 47s
**.hostSSH[*].app[179].startTime = 43s